LTspice 24.0.11 for Windows
Circuit: * SPICE model Zener diodes ***1N5359B***
Start Time: Mon Sep 22 12:48:31 2025
Fatal Error: No analysis request found.
